
#======================================================================
# CRYSTAL DATA
#----------------------------------------------------------------------
data_VESTA_phase_1

_chemical_name_common                  'CoFe5Sn4 - QE'
_cell_length_a                         5.318739
_cell_length_b                         5.357936
_cell_length_c                         19.732241
_cell_angle_alpha                      89.826736
_cell_angle_beta                       90.556259
_cell_angle_gamma                      120.449799
_cell_volume                           484.736162
_space_group_name_H-M_alt              'P 1'
_space_group_IT_number                 1

loop_
_space_group_symop_operation_xyz
   'x, y, z'

loop_
   _atom_site_label
   _atom_site_fract_x
   _atom_site_fract_y
   _atom_site_fract_z
   _atom_site_occupancy
   _atom_site_type_symbol
Co1            0.4969578789        0.5047513739        0.1101826168	1.0	Co
Co2            0.5072103742        0.5024696942        0.8905537892	1.0	Co
Co3            0.4965622679        0.9975624869        0.1103926438	1.0	Co
Fe1            0.5144797474        0.0209515162        0.8864551303	1.0	Fe
Fe2            0.0290845527        0.5173751560        0.1161119499	1.0	Fe
Fe3            0.9876477641        0.4940482909        0.8862321453	1.0	Fe
Fe4            0.1565646466        0.8388281784        0.4467351556	1.0	Fe
Fe5            0.1597144797        0.8211851939        0.2192489143	1.0	Fe
Fe6            0.1569825138        0.3159050585        0.4468076435	1.0	Fe
Fe7            0.1590097017        0.3421083498        0.2192113500	1.0	Fe
Fe8            0.6767425448        0.8370359158        0.4469379318	1.0	Fe
Fe9            0.6362352752        0.8206170929        0.2164021982	1.0	Fe
Fe10           0.8347839249        0.1744855402        0.7807594794	1.0	Fe
Fe11           0.8392605335        0.1561444613        0.5532591919	1.0	Fe
Fe12           0.8372928660        0.6517652207        0.7820156996	1.0	Fe
Fe13           0.8383921975        0.6785803426        0.5531760330	1.0	Fe
Fe14           0.3558451467        0.1712923747        0.7821662525	1.0	Fe
Fe15           0.3185201163        0.1578650662        0.5530419027	1.0	Fe
Sn1           -0.0004027030        0.0027592242        0.1041349293	1.0	Sn
Sn2            0.0054751335        0.0038925864        0.8962486874	1.0	Sn
Sn3            0.6643405571        0.3308338607        0.4383428618	1.0	Sn
Sn4            0.6496724129        0.3272566721        0.2243394710	1.0	Sn
Sn5            0.3451308728        0.6638954181        0.7735755847	1.0	Sn
Sn6            0.3312893252        0.6641847894        0.5618291636	1.0	Sn
Sn7           -0.0088400429       -0.0042301847        0.3297551550	1.0	Sn
Sn8            0.0027518881       -0.0019388055        0.6701300532	1.0	Sn
Sn9            0.6715260141        0.3322744962        0.6647006471	1.0	Sn
Sn10           0.6718699802        0.3405099166        0.0034562260	1.0	Sn
Sn11           0.3421428185        0.6749235650        0.9986381881	1.0	Sn
Sn12           0.3237572118        0.6626671482        0.3351590050	1.0	Sn
