
#======================================================================
# CRYSTAL DATA
#----------------------------------------------------------------------
data_VESTA_phase_1

_chemical_name_common                  'MnFe5Sn4 - QE'
_cell_length_a                         5.332590
_cell_length_b                         5.343340
_cell_length_c                         19.834510
_cell_angle_alpha                      89.965100
_cell_angle_beta                       90.145800
_cell_angle_gamma                      120.113400
_cell_volume                           488.882630
_space_group_name_H-M_alt              'P 1'
_space_group_IT_number                 1

loop_
_space_group_symop_operation_xyz
   'x, y, z'

loop_
   _atom_site_label
   _atom_site_fract_x
   _atom_site_fract_y
   _atom_site_fract_z
   _atom_site_occupancy
   _atom_site_type_symbol
Mn1           0.4971551890        0.5071273848        0.1129837496	1.0	Mn
Mn2           0.5074490356        0.4961531705        0.8866302348      1.0     Mn
Mn3           0.4968395335        0.9912643110        0.1126419123      1.0     Mn
Fe1           0.5104586853        0.0165532973        0.8859945934      1.0     Fe
Fe2           0.0167045777        0.5093382443        0.1132671509      1.0     Fe
Fe3           0.9868196718        0.4929863555        0.8865441711      1.0     Fe
Fe4           0.1578960597        0.8401310384        0.4472831117      1.0     Fe
Fe5           0.1687499893        0.8236810076        0.2206014407      1.0     Fe
Fe6           0.1579061684        0.3174941265        0.4473313922      1.0     Fe
Fe7           0.1687612891        0.3464938058        0.2206643774      1.0     Fe
Fe8           0.6802058482        0.8399609662        0.4474611439      1.0     Fe
Fe9           0.6468390845        0.8241876838        0.2217131945      1.0     Fe
Fe10          0.8279284142        0.1735999801        0.7803614545      1.0     Fe
Fe11          0.8399297055        0.1583577655        0.5530877404      1.0     Fe
Fe12          0.8277750970        0.6508005678        0.7790045855      1.0     Fe
Fe13          0.8400643791        0.6807829694        0.5529741535      1.0     Fe
Fe14          0.3505974709        0.1736890227        0.7789320061      1.0     Fe
Fe15          0.3178985517        0.1584167576        0.5529052361      1.0     Fe
Sn1           0.0010580508        0.0014846045        0.1054323298      1.0     Sn
Sn2           0.0032395961        0.0001315400        0.8938908114      1.0     Sn
Sn3           0.6654817431        0.3325322517        0.4387842987      1.0     Sn
Sn4           0.6628852144        0.3318774230        0.2281922049      1.0     Sn
Sn5           0.3345586298        0.6664538541        0.7716987592      1.0     Sn
Sn6           0.3324565231        0.6657032955        0.5615965204      1.0     Sn
Sn7          -0.0023695693       -0.0009828091        0.3312405404      1.0     Sn
Sn8           0.0001847561       -0.0005750076        0.6690931649      1.0     Sn
Sn9           0.6678385704        0.3325961632        0.6634421154      1.0     Sn
Sn10          0.6689301618        0.3356074556        0.0022739828      1.0     Sn
Sn11          0.3358668557        0.6688798527        0.9969963719      1.0     Sn
Sn12          0.3298907175        0.6652729218        0.3369772513      1.0     Sn


