
#======================================================================
# CRYSTAL DATA
#----------------------------------------------------------------------
data_VESTA_phase_1

_chemical_name_common                  'CoFe5Sn4 - QE'
_cell_length_a                         5.319670
_cell_length_b                         5.319667
_cell_length_c                         19.555868
_cell_angle_alpha                      89.999977
_cell_angle_beta                       90.000000
_cell_angle_gamma                      120.000153
_cell_volume                           479.265546
_space_group_name_H-M_alt              'P 1'
_space_group_IT_number                 1

loop_
_space_group_symop_operation_xyz
   'x, y, z'

loop_
   _atom_site_label
   _atom_site_fract_x
   _atom_site_fract_y
   _atom_site_fract_z
   _atom_site_occupancy
   _atom_site_type_symbol
Co1           0.4946645301        0.5053351995        0.1098187701	1.0	Co
Co2           0.5053440758        0.4946584245        0.8901776418      1.0     Co
Co3           0.4946641928        0.9893206541        0.1098193832      1.0     Co
Co4           0.5053430394        0.0106829521        0.8901783642      1.0     Co
Co5           0.0106791661        0.5053356489        0.1098185750      1.0     Co
Co6           0.9893185607        0.4946589127        0.8901785068      1.0     Co
Fe1           0.1596594724        0.8403421597        0.4463635962      1.0     Fe
Fe2           0.1741776053        0.8258201046        0.2155405195      1.0     Fe
Fe3           0.1596597442        0.3193191687        0.4463632526      1.0     Fe
Fe4           0.1741776194        0.3483560657        0.2155397190      1.0     Fe
Fe5           0.6806824533        0.8403417936        0.4463630339      1.0     Fe
Fe6           0.6516426444        0.8258207255        0.2155402291      1.0     Fe
Fe7           0.8258207004        0.1741797176        0.7844583183      1.0     Fe
Fe8           0.8403378495        0.1596609676        0.5536427543      1.0     Fe
Fe9           0.8258226435        0.6516487244        0.7844582316      1.0     Fe
Fe10          0.8403384242        0.6806785695        0.5536428314      1.0     Fe
Fe11          0.3483519685        0.1741777400        0.7844580684      1.0     Fe
Fe12          0.3193194196        0.1596600639        0.5536430156      1.0     Fe
Sn1           0.0000022955       -0.0000020632        0.1011061977      1.0     Sn
Sn2           0.0000010706       -0.0000004742        0.8988909636      1.0     Sn
Sn3           0.6666658743        0.3333356894        0.4374210438      1.0     Sn
Sn4           0.6666652868        0.3333345594        0.2211399945      1.0     Sn
Sn5           0.3333299486        0.6666688520        0.7788592798      1.0     Sn
Sn6           0.3333308578        0.6666658396        0.5625770716      1.0     Sn
Sn7           0.0000002756       -0.0000002364        0.3281253034      1.0     Sn
Sn8          -0.0000029704        0.0000007846        0.6718755727      1.0     Sn
Sn9           0.6666632388        0.3333359106        0.6666045219      1.0     Sn
Sn10          0.6666670873        0.3333359505        0.0018931583      1.0     Sn
Sn11          0.3333400593        0.6666617781        0.9981050271      1.0     Sn
Sn12          0.3333328660        0.6666658169        0.3333970549      1.0     Sn

